Version 4
SHEET 1 2812 844
WIRE 2224 0 2016 0
WIRE 2016 48 2016 0
WIRE -64 80 -176 80
WIRE 32 80 -64 80
WIRE 80 80 32 80
WIRE 176 80 144 80
WIRE 208 80 176 80
WIRE 304 80 272 80
WIRE 336 80 304 80
WIRE 448 80 400 80
WIRE 864 80 448 80
WIRE 1376 80 864 80
WIRE 2016 80 2016 48
WIRE 448 144 448 80
WIRE 176 192 176 80
WIRE 304 192 304 80
WIRE 448 192 448 144
WIRE 1376 192 1376 80
WIRE 2224 192 2224 0
WIRE 864 240 864 160
WIRE 928 240 864 240
WIRE 1312 240 928 240
WIRE 176 272 176 256
WIRE 304 304 304 256
WIRE 928 304 928 240
WIRE 816 352 752 352
WIRE 864 352 816 352
WIRE 752 368 752 352
WIRE 176 400 176 352
WIRE 2224 400 2224 192
WIRE 2224 400 2128 400
WIRE 1376 416 1376 288
WIRE 1456 416 1376 416
WIRE 1632 416 1520 416
WIRE 1648 416 1632 416
WIRE 1808 416 1648 416
WIRE 2064 416 2016 416
WIRE 2224 432 2128 432
WIRE 928 496 928 400
WIRE 928 496 864 496
WIRE 304 528 304 384
WIRE 304 544 304 528
WIRE 1632 576 1632 416
WIRE 1376 624 1376 416
WIRE 1536 624 1376 624
WIRE 1568 624 1536 624
WIRE 1376 656 1376 624
WIRE 32 784 32 80
WIRE 1376 784 1376 736
WIRE 1376 784 32 784
WIRE 1632 784 1632 672
WIRE 1632 784 1376 784
WIRE 2224 784 2224 432
WIRE 2224 784 1952 784
FLAG -176 160 0
FLAG 176 480 0
FLAG 304 624 0
FLAG 448 256 0
FLAG 176 400 pump1
FLAG -64 80 battery
FLAG 448 144 pump_out
FLAG 304 528 pump2
FLAG 752 448 0
FLAG 864 576 0
FLAG 2016 128 0
FLAG 816 352 pwm
FLAG 2016 416 mosfet
FLAG 1536 624 Q2
FLAG 1648 416 drive
FLAG 1952 784 Batt_Charge
FLAG 2224 192 Solar
SYMBOL diode 80 96 R270
WINDOW 0 32 32 VTop 2
WINDOW 3 0 32 VBottom 2
SYMATTR InstName D1
SYMATTR Value 1N4148
SYMBOL diode 208 96 R270
WINDOW 0 32 32 VTop 2
WINDOW 3 0 32 VBottom 2
SYMATTR InstName D2
SYMATTR Value 1N4148
SYMBOL diode 336 96 R270
WINDOW 0 32 32 VTop 2
WINDOW 3 0 32 VBottom 2
SYMATTR InstName D3
SYMATTR Value 1N4148
SYMBOL cap 160 192 R0
SYMATTR InstName C1
SYMATTR Value 47nf
SYMBOL cap 288 192 R0
SYMATTR InstName C2
SYMATTR Value 47nf
SYMBOL cap 432 192 R0
SYMATTR InstName C3
SYMATTR Value 1µf
SYMBOL voltage -176 64 R0
WINDOW 123 0 0 Left 0
WINDOW 39 0 0 Left 0
SYMATTR InstName V1
SYMATTR Value 12
SYMBOL voltage 176 384 R0
WINDOW 123 0 0 Left 0
WINDOW 39 0 0 Left 0
SYMATTR InstName V2
SYMATTR Value PULSE(0 3.3 0 100ns 100ns 15us 32us)
SYMBOL voltage 304 528 R0
WINDOW 123 0 0 Left 0
WINDOW 39 0 0 Left 0
SYMATTR InstName V3
SYMATTR Value PULSE(3.3 0 0 100ns 100ns 15us 32us)
SYMBOL npn2 864 304 R0
SYMATTR InstName Q1
SYMATTR Value 2N3904
SYMBOL pnp2 1312 288 M180
SYMATTR InstName Q3
SYMATTR Value 2N3906
SYMBOL res 848 480 R0
SYMATTR InstName R1
SYMATTR Value 220k
SYMBOL res 848 64 R0
SYMATTR InstName R2
SYMATTR Value 220k
SYMBOL voltage 752 352 R0
WINDOW 123 0 0 Left 0
WINDOW 39 0 0 Left 0
SYMATTR InstName V4
SYMATTR Value PULSE(3.3 0 0 100ns 100ns 500us 1000us)
SYMBOL pnp2 1568 672 M180
SYMATTR InstName Q2
SYMATTR Value 2N3906
SYMBOL diode 1456 432 R270
WINDOW 0 32 32 VTop 2
WINDOW 3 0 32 VBottom 2
SYMATTR InstName D4
SYMATTR Value 1N4148
SYMBOL res 1360 640 R0
WINDOW 0 51 47 Left 2
SYMATTR InstName R3
SYMATTR Value 220k
SYMBOL res 1792 400 M90
WINDOW 0 0 56 VBottom 2
WINDOW 3 32 56 VTop 2
SYMATTR InstName R4
SYMATTR Value 220
SYMBOL voltage 2016 32 R0
WINDOW 123 0 0 Left 0
WINDOW 39 0 0 Left 0
SYMATTR InstName V5
SYMATTR Value 18
SYMBOL AutoGenerated\\irf3205 2096 416 R0
SYMATTR InstName U1
SYMBOL res 160 256 R0
SYMATTR InstName R5
SYMATTR Value 1k
SYMBOL res 288 288 R0
SYMATTR InstName R6
SYMATTR Value 1k
TEXT -208 672 Left 2 !.tran 0 60ms 0ms
